20
	Energy:      15.0223963
LC1         -0.59885       -0.47905        0.42680
LC2          0.33512        0.42147        1.22488
CA         -0.42615        1.48578        1.97022
CA         -1.15280        2.46123        1.26900
HA         -1.17507        2.45732        0.18653
CA         -0.40581        1.52464        3.37376
HA          0.15286        0.78728        3.93680
CA         -1.10771        2.51710        4.06431
HA         -1.07486        2.52872        5.14645
CA         -1.85436        3.45395        1.95953
HA         -2.40734        4.19545        1.39632
CA         -1.84129        3.48751        3.36330
LC2         -2.59082        4.56037        4.10828
H1         -3.05019        5.28629        3.40301
LC1         -3.70120        3.97195        4.96910
HC         -3.28864        3.28044        5.73259
HC         -4.24005        4.79059        5.49004
HC         -0.00595       -1.25831       -0.09580
HC         -1.16097        0.10354       -0.33210
H1          0.91331       -0.21791        1.92650
